<?xml version="1.0" encoding="UTF-8"?>

<!-- generated on 2025-09-20 14:52:32.989813 by osmWebWizard.py v1_24_0+0000-b72eb3fabc8
<configuration>
    <net-file value="C:\Program Files (x86)\Eclipse\Sumo\tools\2025-09-20-14-52-18\osm.net.xml.gz"/>
    <output-trip-file value="C:\Program Files (x86)\Eclipse\Sumo\tools\2025-09-20-14-52-18\osm.passenger.trips.xml"/>
    <route-file value="C:\Program Files (x86)\Eclipse\Sumo\tools\2025-09-20-14-52-18\osm.passenger.rou.xml"/>
    <prefix value="veh"/>
    <trip-attributes value="departLane=&quot;best&quot;"/>
    <fringe-start-attributes value="departSpeed=&quot;max&quot;"/>
    <vehicle-class value="passenger"/>
    <lanes value="True"/>
    <fringe-factor value="5"/>
    <allow-fringe.min-length value="1000.0"/>
    <edge-permission value="passenger"/>
    <via-edge-types value="highway.motorway,highway.motorway_link,highway.trunk_link,highway.primary_link,highway.secondary_link,highway.tertiary_link"/>
    <seed value="43"/>
    <min-distance value="300.0"/>
    <min-distance.fringe value="10.0"/>
    <remove-loops value="True"/>
    <insertion-density value="14.0"/>
</configuration>
-->

<routes xmlns:xsi="http://www.w3.org/2001/XMLSchema-instance" xsi:noNamespaceSchemaLocation="http://sumo.dlr.de/xsd/routes_file.xsd">
    <vType id="veh_passenger" vClass="passenger"/>
    <trip id="veh0" depart="0.00" from="-188335311#3" to="349283316#2" departLane="best" type="veh_passenger"/>
    <trip id="veh1" depart="2.34" from="-37834172#5" to="170096909#4" departLane="best" type="veh_passenger"/>
    <trip id="veh2" depart="4.68" from="357520680#0" to="38377939#2" departLane="best" type="veh_passenger"/>
    <trip id="veh3" depart="7.02" from="188335311#2" to="188335301#2" departLane="best" type="veh_passenger"/>
    <trip id="veh4" depart="9.36" from="-1148461884#3" to="135082465#1" departLane="best" type="veh_passenger"/>
    <trip id="veh5" depart="11.69" from="1363549211" to="38809001#4" departLane="best" type="veh_passenger"/>
    <trip id="veh6" depart="14.03" from="287544278#3" to="37834172#1" departLane="best" type="veh_passenger"/>
    <trip id="veh7" depart="16.37" from="188130796#2" to="-38725423#2" departLane="best" type="veh_passenger"/>
    <trip id="veh8" depart="18.71" from="414841236#1" to="38766221#4" departLane="best" type="veh_passenger"/>
    <trip id="veh9" depart="21.05" from="1370340546" to="-289115591#1" departLane="best" type="veh_passenger"/>
    <trip id="veh10" depart="23.39" from="217725902" to="188335300#1" departLane="best" type="veh_passenger"/>
    <trip id="veh11" depart="25.73" from="38725426" to="287246976#0" departLane="best" type="veh_passenger" departSpeed="max"/>
    <trip id="veh12" depart="28.07" from="192222487#3" to="261565232#3" departLane="best" type="veh_passenger"/>
    <trip id="veh13" depart="30.41" from="148113999#1" to="-188335312#10" departLane="best" type="veh_passenger"/>
    <trip id="veh14" depart="32.75" from="-192222453" to="595157595#0" departLane="best" type="veh_passenger"/>
    <trip id="veh15" depart="35.08" from="38809001#4" to="-69585283#3" departLane="best" type="veh_passenger"/>
    <trip id="veh16" depart="37.42" from="43520373#0" to="188335312#11" departLane="best" type="veh_passenger" departSpeed="max"/>
    <trip id="veh17" depart="39.76" from="-30500033#1" to="41309828" departLane="best" type="veh_passenger"/>
    <trip id="veh18" depart="42.10" from="313864611#2" to="532992594#0" departLane="best" type="veh_passenger"/>
    <trip id="veh19" depart="44.44" from="362223413" to="-289115589#5" departLane="best" type="veh_passenger"/>
    <trip id="veh20" depart="46.78" from="347995180#6" to="37908526" departLane="best" type="veh_passenger"/>
    <trip id="veh21" depart="49.12" from="450839100#0" to="103855914#0" departLane="best" type="veh_passenger"/>
    <trip id="veh22" depart="51.46" from="-38725441#1" to="38809001#3" departLane="best" type="veh_passenger"/>
    <trip id="veh23" depart="53.80" from="38725429" to="-188335312#11" departLane="best" type="veh_passenger" departSpeed="max"/>
    <trip id="veh24" depart="56.13" from="313864612#1" to="1155202126#0" departLane="best" type="veh_passenger"/>
    <trip id="veh25" depart="58.47" from="-414785740#1" to="287544278#6" departLane="best" type="veh_passenger" departSpeed="max"/>
    <trip id="veh26" depart="60.81" from="79091264#0" to="192222470#0" departLane="best" type="veh_passenger"/>
    <trip id="veh27" depart="63.15" from="-351661494" to="188335299" departLane="best" type="veh_passenger"/>
    <trip id="veh28" depart="65.49" from="38725428" to="69585283#5" departLane="best" type="veh_passenger" departSpeed="max"/>
    <trip id="veh29" depart="67.83" from="37834172#0" to="-188335311#3" departLane="best" type="veh_passenger"/>
    <trip id="veh30" depart="70.17" from="79091256#0" to="287544278#3" departLane="best" type="veh_passenger"/>
    <trip id="veh31" depart="72.51" from="-289115589#1" to="-357520680#1" departLane="best" type="veh_passenger"/>
    <trip id="veh32" depart="74.85" from="-289115589#4" to="332227167#0" departLane="best" type="veh_passenger"/>
    <trip id="veh33" depart="77.19" from="-38377939#8" to="38725440" departLane="best" type="veh_passenger"/>
    <trip id="veh34" depart="79.52" from="-347995179#0" to="192222450#4" departLane="best" type="veh_passenger"/>
    <trip id="veh35" depart="81.86" from="188335305#0" to="-188335310#1" departLane="best" type="veh_passenger"/>
    <trip id="veh36" depart="84.20" from="-103855914#1" to="42685730#0" departLane="best" type="veh_passenger" departSpeed="max"/>
    <trip id="veh37" depart="86.54" from="866853351#0" to="-356841559#1" departLane="best" type="veh_passenger"/>
    <trip id="veh38" depart="88.88" from="37908464#1" to="981597901" departLane="best" type="veh_passenger"/>
    <trip id="veh39" depart="91.22" from="454548726" to="414841238#4" departLane="best" type="veh_passenger" departSpeed="max"/>
    <trip id="veh40" depart="93.56" from="127328085#12" to="349283350#5" departLane="best" type="veh_passenger"/>
    <trip id="veh41" depart="95.90" from="378143958#1" to="38809001#1" departLane="best" type="veh_passenger"/>
    <trip id="veh42" depart="98.24" from="414841236#7" to="1270880968#0" departLane="best" type="veh_passenger"/>
    <trip id="veh43" depart="100.57" from="37834131#2" to="-289115589#3" departLane="best" type="veh_passenger"/>
    <trip id="veh44" depart="102.91" from="171989082" to="349283311#2" departLane="best" type="veh_passenger" departSpeed="max"/>
    <trip id="veh45" depart="105.25" from="297312135#2" to="-43520373#0" departLane="best" type="veh_passenger"/>
    <trip id="veh46" depart="107.59" from="313864611#3" to="454548725#0" departLane="best" type="veh_passenger"/>
    <trip id="veh47" depart="109.93" from="1190628394#1" to="104071737#1" departLane="best" type="veh_passenger"/>
    <trip id="veh48" depart="112.27" from="-414785740#1" to="-38725424" departLane="best" type="veh_passenger" departSpeed="max"/>
    <trip id="veh49" depart="114.61" from="79091254" to="347995179#0" departLane="best" type="veh_passenger"/>
    <trip id="veh50" depart="116.95" from="-414841232#1" to="-38725447#0" departLane="best" type="veh_passenger"/>
    <trip id="veh51" depart="119.29" from="151974260#4" to="981597901" departLane="best" type="veh_passenger"/>
    <trip id="veh52" depart="121.63" from="-192222453" to="-135082465#0" departLane="best" type="veh_passenger"/>
    <trip id="veh53" depart="123.96" from="287544278#1" to="289115591#4" departLane="best" type="veh_passenger"/>
    <trip id="veh54" depart="126.30" from="197882479#3" to="454548725#0" departLane="best" type="veh_passenger"/>
    <trip id="veh55" depart="128.64" from="414841238#3" to="69558465#2" departLane="best" type="veh_passenger"/>
    <trip id="veh56" depart="130.98" from="297729342#3" to="-43520467#2" departLane="best" type="veh_passenger"/>
    <trip id="veh57" depart="133.32" from="-362223415" to="37897196#0" departLane="best" type="veh_passenger"/>
    <trip id="veh58" depart="135.66" from="-38377939#8" to="-103999087#0" departLane="best" type="veh_passenger"/>
    <trip id="veh59" depart="138.00" from="373696528" to="-356841569" departLane="best" type="veh_passenger" departSpeed="max"/>
    <trip id="veh60" depart="140.34" from="347995180#4" to="-38725432#1" departLane="best" type="veh_passenger"/>
    <trip id="veh61" depart="142.68" from="179483091#0" to="-103999107#1" departLane="best" type="veh_passenger"/>
    <trip id="veh62" depart="145.02" from="1370340546" to="1027066849#1" departLane="best" type="veh_passenger"/>
    <trip id="veh63" depart="147.35" from="103999078#0" to="-362223413" departLane="best" type="veh_passenger"/>
    <trip id="veh64" depart="149.69" from="297312135#2" to="349283311#6" departLane="best" type="veh_passenger"/>
    <trip id="veh65" depart="152.03" from="103999104#1" to="349283323#0" departLane="best" type="veh_passenger"/>
    <trip id="veh66" depart="154.37" from="104071737#0" to="313864612#1" departLane="best" type="veh_passenger"/>
    <trip id="veh67" depart="156.71" from="-261565232#3" to="349283323#3" departLane="best" type="veh_passenger"/>
    <trip id="veh68" depart="159.05" from="-37834172#3" to="-41309841" departLane="best" type="veh_passenger"/>
    <trip id="veh69" depart="161.39" from="349283316#0" to="-52882119#5" departLane="best" type="veh_passenger"/>
    <trip id="veh70" depart="163.73" from="356841559#0" to="-69585283#7" departLane="best" type="veh_passenger"/>
    <trip id="veh71" depart="166.07" from="192222453" to="148113999#1" departLane="best" type="veh_passenger"/>
    <trip id="veh72" depart="168.40" from="50544480#4" to="37834131#3" departLane="best" type="veh_passenger"/>
    <trip id="veh73" depart="170.74" from="287544278#5" to="38809001#1" departLane="best" type="veh_passenger"/>
    <trip id="veh74" depart="173.08" from="332227167#0" to="356841559#0" departLane="best" type="veh_passenger"/>
    <trip id="veh75" depart="175.42" from="256931085" to="261565232#2" departLane="best" type="veh_passenger"/>
    <trip id="veh76" depart="177.76" from="-43520467#1" to="532900366#0" departLane="best" type="veh_passenger"/>
    <trip id="veh77" depart="180.10" from="349283311#7" to="38766221#4" departLane="best" type="veh_passenger"/>
    <trip id="veh78" depart="182.44" from="313864612#6" to="-1155202126#1" departLane="best" type="veh_passenger"/>
    <trip id="veh79" depart="184.78" from="-347995179#0" to="414841238#0" departLane="best" type="veh_passenger"/>
    <trip id="veh80" depart="187.12" from="373696528" to="42685730#1" departLane="best" type="veh_passenger" departSpeed="max"/>
    <trip id="veh81" depart="189.46" from="981597899#1" to="289115591#0" departLane="best" type="veh_passenger"/>
    <trip id="veh82" depart="191.79" from="37908462#2" to="188335311#5" departLane="best" type="veh_passenger"/>
    <trip id="veh83" depart="194.13" from="-985544879" to="179483091#2" departLane="best" type="veh_passenger"/>
    <trip id="veh84" depart="196.47" from="188335312#10" to="-69585283#4" departLane="best" type="veh_passenger"/>
    <trip id="veh85" depart="198.81" from="127328085#4" to="1370340546" departLane="best" type="veh_passenger"/>
    <trip id="veh86" depart="201.15" from="103999087#4" to="-362223416#1" departLane="best" type="veh_passenger"/>
    <trip id="veh87" depart="203.49" from="38725446#1" to="1105958338#4" departLane="best" type="veh_passenger"/>
    <trip id="veh88" depart="205.83" from="135082465#1" to="37908503#4" departLane="best" type="veh_passenger"/>
    <trip id="veh89" depart="208.17" from="373696528" to="151974260#1" departLane="best" type="veh_passenger" departSpeed="max"/>
    <trip id="veh90" depart="210.51" from="1155202125" to="38377939#8" departLane="best" type="veh_passenger" departSpeed="max"/>
    <trip id="veh91" depart="212.84" from="-69585283#4" to="170096909#4" departLane="best" type="veh_passenger"/>
    <trip id="veh92" depart="215.18" from="-717053751#1" to="287246975#1" departLane="best" type="veh_passenger"/>
    <trip id="veh93" depart="217.52" from="-41309841" to="414841238#5" departLane="best" type="veh_passenger"/>
    <trip id="veh94" depart="219.86" from="38725432#0" to="-38725444#0" departLane="best" type="veh_passenger"/>
    <trip id="veh95" depart="222.20" from="313864611#5" to="349283350#4" departLane="best" type="veh_passenger"/>
    <trip id="veh96" depart="224.54" from="454548726" to="-43520373#1" departLane="best" type="veh_passenger" departSpeed="max"/>
    <trip id="veh97" depart="226.88" from="192222474#2" to="454548725#0" departLane="best" type="veh_passenger"/>
    <trip id="veh98" depart="229.22" from="-414785740#1" to="-42653021#0" departLane="best" type="veh_passenger" departSpeed="max"/>
    <trip id="veh99" depart="231.56" from="42578560" to="38809001#0" departLane="best" type="veh_passenger"/>
    <trip id="veh100" depart="233.90" from="226045133#1" to="-362223413" departLane="best" type="veh_passenger"/>
    <trip id="veh101" depart="236.23" from="38809001#1" to="-79091255" departLane="best" type="veh_passenger"/>
    <trip id="veh102" depart="238.57" from="38377939#9" to="-42653021#1" departLane="best" type="veh_passenger"/>
    <trip id="veh103" depart="240.91" from="-38377939#8" to="349283311#7" departLane="best" type="veh_passenger"/>
    <trip id="veh104" depart="243.25" from="170096909#2" to="1155202665#1" departLane="best" type="veh_passenger"/>
    <trip id="veh105" depart="245.59" from="188335301#2" to="170096909#1" departLane="best" type="veh_passenger"/>
    <trip id="veh106" depart="247.93" from="188335314" to="313864612#11" departLane="best" type="veh_passenger"/>
    <trip id="veh107" depart="250.27" from="-347995108#0" to="347995180#3" departLane="best" type="veh_passenger"/>
    <trip id="veh108" depart="252.61" from="192222461#0" to="38766221#3" departLane="best" type="veh_passenger"/>
    <trip id="veh109" depart="254.95" from="1105958338#4" to="347995108#0" departLane="best" type="veh_passenger"/>
    <trip id="veh110" depart="257.28" from="-42578538#1" to="349283323#0" departLane="best" type="veh_passenger"/>
    <trip id="veh111" depart="259.62" from="362223414" to="192222461#2" departLane="best" type="veh_passenger"/>
    <trip id="veh112" depart="261.96" from="192222450#4" to="69558465#2" departLane="best" type="veh_passenger"/>
    <trip id="veh113" depart="264.30" from="1349720560#5" to="-261565232#4" departLane="best" type="veh_passenger"/>
    <trip id="veh114" depart="266.64" from="1270880968#1" to="-188335311#4" departLane="best" type="veh_passenger"/>
    <trip id="veh115" depart="268.98" from="43520467#1" to="38809000#2" departLane="best" type="veh_passenger"/>
    <trip id="veh116" depart="271.32" from="-414785740#1" to="297312135#0" departLane="best" type="veh_passenger" departSpeed="max"/>
    <trip id="veh117" depart="273.66" from="-42578538#0" to="41309828" departLane="best" type="veh_passenger"/>
    <trip id="veh118" depart="276.00" from="174088693" to="-192056617#0" departLane="best" type="veh_passenger"/>
    <trip id="veh119" depart="278.34" from="444310651" to="52882119#5" departLane="best" type="veh_passenger"/>
    <trip id="veh120" depart="280.67" from="347995179#0" to="-42578518#1" departLane="best" type="veh_passenger"/>
    <trip id="veh121" depart="283.01" from="38725427" to="-188335311#1" departLane="best" type="veh_passenger" departSpeed="max"/>
    <trip id="veh122" depart="285.35" from="-347995179#1" to="-72597980" departLane="best" type="veh_passenger"/>
    <trip id="veh123" depart="287.69" from="-261565232#1" to="414841236#1" departLane="best" type="veh_passenger"/>
    <trip id="veh124" depart="290.03" from="356841558#1" to="38725441#0" departLane="best" type="veh_passenger"/>
    <trip id="veh125" depart="292.37" from="349283350#0" to="-414841232#0" departLane="best" type="veh_passenger"/>
    <trip id="veh126" depart="294.71" from="104071737#3" to="289115589#4" departLane="best" type="veh_passenger"/>
    <trip id="veh127" depart="297.05" from="38725434#1" to="28951980#1" departLane="best" type="veh_passenger"/>
    <trip id="veh128" depart="299.39" from="1155202666#0" to="38725423#2" departLane="best" type="veh_passenger"/>
    <trip id="veh129" depart="301.72" from="171989082" to="295672762#3" departLane="best" type="veh_passenger" departSpeed="max"/>
    <trip id="veh130" depart="304.06" from="414841236#0" to="313864612#8" departLane="best" type="veh_passenger"/>
    <trip id="veh131" depart="306.40" from="188335311#6" to="287246974#6" departLane="best" type="veh_passenger"/>
    <trip id="veh132" depart="308.74" from="-42578535#3" to="135082497#0" departLane="best" type="veh_passenger"/>
    <trip id="veh133" depart="311.08" from="38809001#1" to="179483091#0" departLane="best" type="veh_passenger"/>
    <trip id="veh134" depart="313.42" from="-114835839#1" to="38725447#2" departLane="best" type="veh_passenger"/>
    <trip id="veh135" depart="315.76" from="-38377939#8" to="-148113999#2" departLane="best" type="veh_passenger"/>
    <trip id="veh136" depart="318.10" from="297729342#2" to="37908462#1" departLane="best" type="veh_passenger"/>
    <trip id="veh137" depart="320.44" from="-351661489#1" to="1370340546" departLane="best" type="veh_passenger"/>
    <trip id="veh138" depart="322.78" from="188335312#1" to="-356841559#0" departLane="best" type="veh_passenger"/>
    <trip id="veh139" depart="325.11" from="349283311#0" to="-42578538#2" departLane="best" type="veh_passenger"/>
    <trip id="veh140" depart="327.45" from="373696528" to="188335305#0" departLane="best" type="veh_passenger" departSpeed="max"/>
    <trip id="veh141" depart="329.79" from="38725423#0" to="-103999104#1" departLane="best" type="veh_passenger" departSpeed="max"/>
    <trip id="veh142" depart="332.13" from="1155202126#0" to="-295672762#3" departLane="best" type="veh_passenger"/>
    <trip id="veh143" depart="334.47" from="-289115589#4" to="-103999104#1" departLane="best" type="veh_passenger"/>
    <trip id="veh144" depart="336.81" from="261565232#8" to="-192222474#2" departLane="best" type="veh_passenger"/>
    <trip id="veh145" depart="339.15" from="-356841558#0" to="135082465#1" departLane="best" type="veh_passenger"/>
    <trip id="veh146" depart="341.49" from="362223413" to="-38725434#1" departLane="best" type="veh_passenger"/>
    <trip id="veh147" depart="343.83" from="349283350#0" to="192222487#0" departLane="best" type="veh_passenger"/>
    <trip id="veh148" depart="346.17" from="52882119#5" to="38725444#0" departLane="best" type="veh_passenger"/>
    <trip id="veh149" depart="348.50" from="43520373#0" to="-986712205" departLane="best" type="veh_passenger" departSpeed="max"/>
    <trip id="veh150" depart="350.84" from="1105958338#0" to="1349720560#8" departLane="best" type="veh_passenger"/>
    <trip id="veh151" depart="353.18" from="-135082465#0" to="356841559#0" departLane="best" type="veh_passenger"/>
    <trip id="veh152" depart="355.52" from="-192222450#4" to="1349720562#0" departLane="best" type="veh_passenger"/>
    <trip id="veh153" depart="357.86" from="-981597900#0" to="65758524#0" departLane="best" type="veh_passenger"/>
    <trip id="veh154" depart="360.20" from="1148461884#0" to="1105958338#3" departLane="best" type="veh_passenger"/>
    <trip id="veh155" depart="362.54" from="1155202125" to="-356841569" departLane="best" type="veh_passenger" departSpeed="max"/>
    <trip id="veh156" depart="364.88" from="349283323#0" to="-72597980" departLane="best" type="veh_passenger"/>
    <trip id="veh157" depart="367.22" from="103999107#0" to="-981597898#0" departLane="best" type="veh_passenger"/>
    <trip id="veh158" depart="369.55" from="1349720560#2" to="38377939#3" departLane="best" type="veh_passenger"/>
    <trip id="veh159" depart="371.89" from="-444310651" to="-356841559#1" departLane="best" type="veh_passenger"/>
    <trip id="veh160" depart="374.23" from="1270880968#1" to="226045133#1" departLane="best" type="veh_passenger"/>
    <trip id="veh161" depart="376.57" from="1105958338#0" to="-30500033#0" departLane="best" type="veh_passenger"/>
    <trip id="veh162" depart="378.91" from="1349720560#3" to="78247504" departLane="best" type="veh_passenger"/>
    <trip id="veh163" depart="381.25" from="450040538" to="148113999#1" departLane="best" type="veh_passenger" departSpeed="max"/>
    <trip id="veh164" depart="383.59" from="188130796#1" to="-38725423#0" departLane="best" type="veh_passenger"/>
    <trip id="veh165" depart="385.93" from="103907907" to="28951980#1" departLane="best" type="veh_passenger" departSpeed="max"/>
    <trip id="veh166" depart="388.27" from="-30500033#0" to="-981597898#3" departLane="best" type="veh_passenger"/>
    <trip id="veh167" depart="390.61" from="1105958338#6" to="38377939#9" departLane="best" type="veh_passenger"/>
    <trip id="veh168" depart="392.94" from="347995180#1" to="188335311#0" departLane="best" type="veh_passenger"/>
    <trip id="veh169" depart="395.28" from="188335301#0" to="192222470#0" departLane="best" type="veh_passenger"/>
    <trip id="veh170" depart="397.62" from="192222453" to="-43520373#0" departLane="best" type="veh_passenger"/>
    <trip id="veh171" depart="399.96" from="38809001#0" to="38377939#9" departLane="best" type="veh_passenger"/>
    <trip id="veh172" depart="402.30" from="164792588#2" to="127328085#7" departLane="best" type="veh_passenger"/>
    <trip id="veh173" depart="404.64" from="532422670#1" to="-114835839#1" departLane="best" type="veh_passenger"/>
    <trip id="veh174" depart="406.98" from="-414841238#0" to="104071737#3" departLane="best" type="veh_passenger"/>
    <trip id="veh175" depart="409.32" from="347995180#6" to="-985544879" departLane="best" type="veh_passenger"/>
    <trip id="veh176" depart="411.66" from="256931085" to="188335311#2" departLane="best" type="veh_passenger"/>
    <trip id="veh177" depart="413.99" from="50544604" to="261657003#0" departLane="best" type="veh_passenger" departSpeed="max"/>
    <trip id="veh178" depart="416.33" from="103999104#4" to="297729342#1" departLane="best" type="veh_passenger"/>
    <trip id="veh179" depart="418.67" from="289115591#2" to="-72597980" departLane="best" type="veh_passenger"/>
    <trip id="veh180" depart="421.01" from="37897196#0" to="-103999087#3" departLane="best" type="veh_passenger"/>
    <trip id="veh181" depart="423.35" from="981597900#1" to="414841236#1" departLane="best" type="veh_passenger"/>
    <trip id="veh182" depart="425.69" from="-192222453" to="349283350#0" departLane="best" type="veh_passenger"/>
    <trip id="veh183" depart="428.03" from="-362223415" to="981843205#0" departLane="best" type="veh_passenger"/>
    <trip id="veh184" depart="430.37" from="-985544879" to="313864612#2" departLane="best" type="veh_passenger"/>
    <trip id="veh185" depart="432.71" from="-148113999#2" to="38725423#1" departLane="best" type="veh_passenger"/>
    <trip id="veh186" depart="435.05" from="103999087#3" to="-38725423#0" departLane="best" type="veh_passenger"/>
    <trip id="veh187" depart="437.38" from="188335301#3" to="188335305#0" departLane="best" type="veh_passenger"/>
    <trip id="veh188" depart="439.72" from="-188335312#11" to="-38725422#0" departLane="best" type="veh_passenger"/>
    <trip id="veh189" depart="442.06" from="151974260#3" to="192222461#2" departLane="best" type="veh_passenger"/>
    <trip id="veh190" depart="444.40" from="373696528" to="-362223414" departLane="best" type="veh_passenger" departSpeed="max"/>
    <trip id="veh191" depart="446.74" from="38766221#6" to="1105958338#6" departLane="best" type="veh_passenger"/>
    <trip id="veh192" depart="449.08" from="188335305#1" to="1105958338#6" departLane="best" type="veh_passenger"/>
    <trip id="veh193" depart="451.42" from="-287544278#4" to="52882119#3" departLane="best" type="veh_passenger"/>
    <trip id="veh194" depart="453.76" from="313864612#1" to="37834172#3" departLane="best" type="veh_passenger"/>
    <trip id="veh195" depart="456.10" from="-38377939#8" to="179483091#2" departLane="best" type="veh_passenger"/>
    <trip id="veh196" depart="458.43" from="1105958338#3" to="-50544480#1" departLane="best" type="veh_passenger"/>
    <trip id="veh197" depart="460.77" from="170096909#3" to="28951980#1" departLane="best" type="veh_passenger"/>
    <trip id="veh198" depart="463.11" from="188335311#5" to="349283316#3" departLane="best" type="veh_passenger"/>
    <trip id="veh199" depart="465.45" from="981597901" to="287246974#6" departLane="best" type="veh_passenger"/>
    <trip id="veh200" depart="467.79" from="38725440" to="69585283#0" departLane="best" type="veh_passenger"/>
    <trip id="veh201" depart="470.13" from="79193527#0" to="104071737#2" departLane="best" type="veh_passenger"/>
    <trip id="veh202" depart="472.47" from="38809001#3" to="349283316#3" departLane="best" type="veh_passenger"/>
    <trip id="veh203" depart="474.81" from="-1148461884#3" to="38766221#4" departLane="best" type="veh_passenger"/>
    <trip id="veh204" depart="477.15" from="450040538" to="42578535#1" departLane="best" type="veh_passenger" departSpeed="max"/>
    <trip id="veh205" depart="479.49" from="127328085#12" to="356841569" departLane="best" type="veh_passenger"/>
    <trip id="veh206" depart="481.82" from="349283311#6" to="1190628393" departLane="best" type="veh_passenger"/>
    <trip id="veh207" depart="484.16" from="52882119#0" to="188335312#14" departLane="best" type="veh_passenger"/>
    <trip id="veh208" depart="486.50" from="-79091206#0" to="1349720562#0" departLane="best" type="veh_passenger"/>
    <trip id="veh209" depart="488.84" from="313864611#4" to="1155202666#0" departLane="best" type="veh_passenger"/>
    <trip id="veh210" depart="491.18" from="1190628394#2" to="297312135#1" departLane="best" type="veh_passenger"/>
    <trip id="veh211" depart="493.52" from="1155202665#1" to="179483091#3" departLane="best" type="veh_passenger"/>
    <trip id="veh212" depart="495.86" from="-289115589#1" to="-981597900#2" departLane="best" type="veh_passenger"/>
    <trip id="veh213" depart="498.20" from="-351661494" to="179481566#0" departLane="best" type="veh_passenger"/>
    <trip id="veh214" depart="500.54" from="1190628394#2" to="1155202666#0" departLane="best" type="veh_passenger"/>
    <trip id="veh215" depart="502.87" from="-182023427#1" to="981597901" departLane="best" type="veh_passenger"/>
    <trip id="veh216" depart="505.21" from="-42685730#0" to="-103999104#0" departLane="best" type="veh_passenger"/>
    <trip id="veh217" depart="507.55" from="313864611#2" to="-188335311#1" departLane="best" type="veh_passenger"/>
    <trip id="veh218" depart="509.89" from="295672762#0" to="454548725#0" departLane="best" type="veh_passenger"/>
    <trip id="veh219" depart="512.23" from="38809001#2" to="-42554971#1" departLane="best" type="veh_passenger"/>
    <trip id="veh220" depart="514.57" from="-362223416#1" to="-192056617#0" departLane="best" type="veh_passenger"/>
    <trip id="veh221" depart="516.91" from="179483091#2" to="104071737#2" departLane="best" type="veh_passenger"/>
    <trip id="veh222" depart="519.25" from="981597898#3" to="-42578535#2" departLane="best" type="veh_passenger"/>
    <trip id="veh223" depart="521.59" from="188335311#2" to="37908522" departLane="best" type="veh_passenger"/>
    <trip id="veh224" depart="523.93" from="1190628394#0" to="42653021#1" departLane="best" type="veh_passenger"/>
    <trip id="veh225" depart="526.26" from="37908522" to="28951980#0" departLane="best" type="veh_passenger"/>
    <trip id="veh226" depart="528.60" from="38809001#4" to="347995180#3" departLane="best" type="veh_passenger"/>
    <trip id="veh227" depart="530.94" from="1370340546" to="65758492#1" departLane="best" type="veh_passenger"/>
    <trip id="veh228" depart="533.28" from="188335299" to="-79193527#1" departLane="best" type="veh_passenger"/>
    <trip id="veh229" depart="535.62" from="38766221#0" to="104071737#6" departLane="best" type="veh_passenger" departSpeed="max"/>
    <trip id="veh230" depart="537.96" from="174273720#2" to="226045133#0" departLane="best" type="veh_passenger"/>
    <trip id="veh231" depart="540.30" from="-289115589#7" to="38809000#2" departLane="best" type="veh_passenger"/>
    <trip id="veh232" depart="542.64" from="347995107" to="-188335311#6" departLane="best" type="veh_passenger"/>
    <trip id="veh233" depart="544.98" from="-295672762#0" to="-69585283#0" departLane="best" type="veh_passenger"/>
    <trip id="veh234" depart="547.31" from="182023427#0" to="38725432#0" departLane="best" type="veh_passenger"/>
    <trip id="veh235" depart="549.65" from="38725441#1" to="362223417" departLane="best" type="veh_passenger"/>
    <trip id="veh236" depart="551.99" from="37908462#2" to="188335311#2" departLane="best" type="veh_passenger"/>
    <trip id="veh237" depart="554.33" from="-289115589#7" to="104071737#5" departLane="best" type="veh_passenger"/>
    <trip id="veh238" depart="556.67" from="37908503#4" to="-1190628393" departLane="best" type="veh_passenger"/>
    <trip id="veh239" depart="559.01" from="-79091206#0" to="-114835839#0" departLane="best" type="veh_passenger"/>
    <trip id="veh240" depart="561.35" from="1190628394#0" to="1027066849#1" departLane="best" type="veh_passenger"/>
    <trip id="veh241" depart="563.69" from="192222450#2" to="-38725424" departLane="best" type="veh_passenger"/>
    <trip id="veh242" depart="566.03" from="287544278#2" to="-347995179#1" departLane="best" type="veh_passenger"/>
    <trip id="veh243" depart="568.37" from="38725432#0" to="38809000#2" departLane="best" type="veh_passenger"/>
    <trip id="veh244" depart="570.70" from="173920254#1" to="414841238#5" departLane="best" type="veh_passenger"/>
    <trip id="veh245" depart="573.04" from="351661489#0" to="192222487#2" departLane="best" type="veh_passenger"/>
    <trip id="veh246" depart="575.38" from="349283311#6" to="148113999#1" departLane="best" type="veh_passenger"/>