<?xml version="1.0" encoding="UTF-8"?>

<!-- generated on 2025-09-20 14:52:26.899246 by osmWebWizard.py v1_24_0+0000-b72eb3fabc8
<configuration>
    <net-file value="C:\Program Files (x86)\Eclipse\Sumo\tools\2025-09-20-14-52-18\osm.net.xml.gz"/>
    <ptlines-file value="C:\Program Files (x86)\Eclipse\Sumo\tools\2025-09-20-14-52-18\osm_ptlines.xml"/>
    <ptstops-file value="C:\Program Files (x86)\Eclipse\Sumo\tools\2025-09-20-14-52-18\osm_stops.add.xml"/>
    <output-file value="C:\Program Files (x86)\Eclipse\Sumo\tools\2025-09-20-14-52-18\osm_pt.rou.xml"/>
    <stopinfos-file value="C:\Program Files (x86)\Eclipse\Sumo\tools\2025-09-20-14-52-18\stopinfos.xml"/>
    <routes-file value="C:\Program Files (x86)\Eclipse\Sumo\tools\2025-09-20-14-52-18\vehroutes.xml"/>
    <trips-file value="C:\Program Files (x86)\Eclipse\Sumo\tools\2025-09-20-14-52-18\trips.trips.xml"/>
    <min-stops value="0"/>
    <extend-to-fringe value="True"/>
    <random-begin value="True"/>
    <seed value="42"/>
    <ignore-errors value="True"/>
    <vtype-prefix value="pt_"/>
    <verbose value="True"/>
</configuration>
-->

<routes xmlns:xsi="http://www.w3.org/2001/XMLSchema-instance" xsi:noNamespaceSchemaLocation="http://sumo.dlr.de/xsd/routes_file.xsd">
    <vType id="pt_bus" vClass="bus"/>
    <vType id="pt_tram" vClass="tram"/>
    <vType id="pt_train" vClass="rail"/>
    <vType id="pt_subway" vClass="subway"/>
    <vType id="pt_light_rail" vClass="rail_urban"/>
    <vType id="pt_monorail" vClass="rail_urban"/>
    <vType id="pt_trolleybus" vClass="bus"/>
    <vType id="pt_minibus" vClass="bus"/>
    <vType id="pt_share_taxi" vClass="taxi"/>
    <vType id="pt_aerialway" vClass="cable_car" length="2.5" width="2" personCapacity="4"/>
    <vType id="pt_ferry" vClass="ship"/>
    <route id="pt_bus_105:0" edges="179481566#0 1155202665#0 1155202665#1 192222461#0 192222461#2 192222461#3 192222461#4 192222461#5 154984458 129557734 37908526 287246976#0 287246976#2 287246976#3 378276857#1 349283323#0 349283323#1 349283323#2 349283323#3 349283329#0 349283329#2 349283329#3 349283329#4 1270880968#0 1270880968#1 1349720944 1363549211 69558465#1 69558465#2 347995180#0 347995180#1 347995180#3 347995180#4 347995180#6 347995180#7 37908529 164790871 164790872 70004437 1190628394#0 1190628394#1 1190628394#2 -1190628393 -65758492#1 -65758492#0 65758492#0" >
        <stop busStop="1643998027" duration="20" until="218.0"/> <!-- ул. 45 стр. Дивизии -->
        <stop busStop="1643999455" duration="20" until="396.0"/> <!-- Памятник Славы -->
        <stop busStop="3366023907" duration="20" until="459.0"/> <!-- Памятник Славы -->
        <stop busStop="1648142128" duration="20" until="514.0"/> <!-- Хользунова -->
        <stop busStop="1828286575" duration="20" until="607.0"/> <!-- Беспаловой -->
        <stop busStop="1828284272" duration="20" until="733.0"/> <!-- Птичий рынок -->
        <stop busStop="1846673387" duration="20" until="803.0"/> <!-- Подгоренская -->
        <stop busStop="1846673386" duration="20" until="858.0"/> <!-- Новгородская -->
        <stop busStop="3665704206" duration="20" until="967.0"/> <!-- Новгородская -->
    </route>
    <route id="pt_bus_105:1" edges="-38373347 65758492#0 65758492#1 1190628393 188335300#0 188335300#1 373696537 37908522 104071737#0 104071737#1 104071737#2 104071737#3 104071737#5 104071737#6 289115601#0 289115601#2 347995181 347995182 362223418 188335314 349283316#0 349283316#2 349283316#3 349283350#0 349283350#1 349283350#2 349283350#4 349283350#5 287246975#0 287246975#1 287246975#2 289115600#0 289115600#1 289115600#3 38809001#0 38809001#1 38809001#2 38809001#3 38809001#4 1155202666#0 135082497#0 135082497#1 1155202127#1 78247504" >
        <stop busStop="3665704206" duration="20" until="57.0"/> <!-- Новгородская -->
        <stop busStop="1828274452" duration="20" until="147.0"/> <!-- Новгородская -->
        <stop busStop="1828281263" duration="20" until="215.0"/> <!-- Подгоренская -->
        <stop busStop="1828284271" duration="20" until="287.0"/> <!-- Птичий рынок -->
        <stop busStop="1828286578" duration="20" until="375.0"/> <!-- Беспаловой -->
        <stop busStop="2908797330" duration="20" until="461.0"/> <!-- Хользунова -->
        <stop busStop="2908797328" duration="20" until="518.0"/> <!-- Памятник Славы -->
        <stop busStop="1643955249" duration="20" until="622.0"/> <!-- ул. 45 стр. Дивизии -->
    </route>
    <route id="pt_bus_110:0" edges="1155202125 192222457 179481566#0 1155202665#0 1155202665#1 192222461#0 192222461#2 192222461#3 192222461#4 192222461#5 154984458 981843205#0 38809000#0 38809000#1 38809000#2" >
        <stop busStop="1643998027" duration="20" until="376.0"/> <!-- ул. 45 стр. Дивизии -->
        <stop busStop="1643999455" duration="20" until="518.0"/> <!-- Памятник Славы -->
    </route>
    <route id="pt_bus_110:1" edges="373696528 981843206#0 981843206#1 1370340546 595157595#0 130688502 38809001#0 38809001#1 38809001#2 38809001#3 38809001#4 1155202666#0 135082497#0 135082497#1 1155202127#1 78247504" >
        <stop busStop="2917832671" duration="20" until="74.0"/> <!-- Памятник Славы -->
        <stop busStop="1643955249" duration="20" until="231.0"/> <!-- ул. 45 стр. Дивизии -->
    </route>
    <route id="pt_bus_111:0" edges="1155202125 192222457 179481566#0 1155202665#0 1155202665#1 192222461#0 192222461#2 192222461#3 192222461#4 192222461#5 154984458 981843205#0 38809000#0 38809000#1 38809000#2" >
        <stop busStop="1643998027" duration="20" until="291.0"/> <!-- ул. 45 стр. Дивизии -->
        <stop busStop="1643999455" duration="20" until="389.0"/> <!-- Памятник Славы -->
    </route>
    <route id="pt_bus_111:1" edges="373696528 981843206#0 981843206#1 1370340546 595157595#0 130688502 38809001#0 38809001#1 38809001#2 38809001#3 38809001#4 1155202666#0 135082497#0 135082497#1 1155202127#1 78247504" >
        <stop busStop="1643955249" duration="20" until="172.0"/> <!-- ул. 45 стр. Дивизии -->
    </route>
    <route id="pt_bus_115:0" edges="373696528 981843206#0 981843206#1 1370340546 595157595#0 130688502 38809001#0 38809001#1 38809001#2 38809001#3 38809001#4 1155202666#0 135082497#0 135082497#1 1155202127#1 78247504" >
        <stop busStop="2917832671" duration="20" until="66.0"/> <!-- Памятник Славы -->
        <stop busStop="1643955249" duration="20" until="166.0"/> <!-- ул. 45 стр. Дивизии -->
    </route>
    <route id="pt_bus_120А:0" edges="373696528 981843206#0 981843206#1 1370340546 595157595#0 130688502 38809001#0 38809001#1 38809001#2 38809001#3 38809001#4 1155202666#0 135082497#0 135082497#1 1155202127#1 78247504" >
        <stop busStop="2917832671" duration="20" until="101.0"/> <!-- Памятник Славы -->
        <stop busStop="1643955249" duration="20" until="257.0"/> <!-- ул. 45 стр. Дивизии -->
    </route>
    <route id="pt_bus_120А:1" edges="1155202125 192222457 179481566#0 1155202665#0 1155202665#1 192222461#0 192222461#2 192222461#3 192222461#4 192222461#5 154984458 981843205#0 38809000#0 38809000#1 38809000#2" >
        <stop busStop="1643998027" duration="20" until="427.0"/> <!-- ул. 45 стр. Дивизии -->
        <stop busStop="1643999455" duration="20" until="605.0"/> <!-- Памятник Славы -->
    </route>
    <route id="pt_bus_125:0" edges="171989082 172492284#0 172492284#1 130688555 130688553 38766222 170096909#1 170096909#2 170096909#3 170096909#4 170096909#5 170096909#6 313864612#0 313864612#1 313864612#2 313864612#3 313864612#4 313864612#5 313864612#6 313864612#7 313864612#8 313864612#11 313864612#13 313864612#14 313864612#16 151974260#0 151974260#1 151974260#3 151974260#4 289115600#0 289115600#1 289115600#3 38809001#0 38809001#1 38809001#2 38809001#3 38809001#4 1155202666#0 135082497#0 135082497#1 1155202127#1 78247504" >
        <stop busStop="1648120191" duration="20" until="53.0"/> <!-- Универсам "Молодёжный" -->
        <stop busStop="1648124816" duration="20" until="119.0"/> <!-- 60 лет ВЛКСМ -->
        <stop busStop="1648127681" duration="20" until="177.0"/> <!-- Институт искусств -->
        <stop busStop="1648130838" duration="20" until="253.0"/> <!-- 60 Армии -->
        <stop busStop="1648137532" duration="20" until="311.0"/> <!-- Школа -->
        <stop busStop="1648141156" duration="20" until="394.0"/> <!-- Кинотеатр "Мир" -->
        <stop busStop="2908797330" duration="20" until="478.0"/> <!-- Хользунова -->
        <stop busStop="2908797328" duration="20" until="536.0"/> <!-- Памятник Славы -->
        <stop busStop="1643955249" duration="20" until="645.0"/> <!-- ул. 45 стр. Дивизии -->
    </route>
    <route id="pt_bus_125:1" edges="1155202125 192222457 179481566#0 1155202665#0 1155202665#1 192222461#0 192222461#2 192222461#3 192222461#4 192222461#5 154984458 129557734 37908526 287246976#0 287246976#2 287246976#3 378276857#1 287246974#0 287246974#2 287246974#3 287246974#4 287246974#6 127328085#0 127328085#2 127328085#3 127328085#4 127328085#5 127328085#6 127328085#7 127328085#9 127328085#10 127328085#11 127328085#12 179483091#0 179483091#2 179483091#3 188130796#0 188130796#1 188130796#2 313864611#0 313864611#2 313864611#3 313864611#4 313864611#5 130688548 130688564 130688554 38284697" >
        <stop busStop="1643998027" duration="20" until="396.0"/> <!-- ул. 45 стр. Дивизии -->
        <stop busStop="1643999455" duration="20" until="537.0"/> <!-- Памятник Славы -->
        <stop busStop="3366023907" duration="20" until="619.0"/> <!-- Памятник Славы -->
        <stop busStop="1648142128" duration="20" until="672.0"/> <!-- Хользунова -->
        <stop busStop="1648243506" duration="20" until="772.0"/> <!-- Кинотеатр "Мир" -->
        <stop busStop="1648244043" duration="20" until="834.0"/> <!-- Школа -->
        <stop busStop="1648244580" duration="20" until="902.0"/> <!-- 60 Армии -->
        <stop busStop="1648250256" duration="20" until="985.0"/> <!-- Институт искусств -->
        <stop busStop="1648252258" duration="20" until="1046.0"/> <!-- 60 лет ВЛКСМ -->
        <stop busStop="1648253666" duration="20" until="1112.0"/> <!-- Универсам "Молодёжный" -->
    </route>
    <route id="pt_bus_15:0" edges="454548726 127328085#0 127328085#2 127328085#3 127328085#4 127328085#5 127328085#6 127328085#7 127328085#9 127328085#10 127328085#11 127328085#12 179483091#0 179483091#2 179483091#3 188130796#0 188130796#1 188130796#2 313864611#0 313864611#2 313864611#3 313864611#4 313864611#5 130688548 130688564 130688554 130688560 172492284#0 172492284#1 37908462#0 37908462#1 37908462#2 37908462#3 164790872" >
        <stop busStop="1648243506" duration="20" until="49.0"/> <!-- Кинотеатр "Мир" -->
        <stop busStop="1648244043" duration="20" until="109.0"/> <!-- Школа -->
        <stop busStop="1648244580" duration="20" until="181.0"/> <!-- 60 Армии -->
        <stop busStop="1648250256" duration="20" until="264.0"/> <!-- Институт искусств -->
        <stop busStop="1648252258" duration="20" until="326.0"/> <!-- 60 лет ВЛКСМ -->
        <stop busStop="1648253666" duration="20" until="391.0"/> <!-- Универсам "Молодёжный" -->
        <stop busStop="3052536276" duration="20" until="449.0"/> <!-- Владимира Невского (Универсам "Молодёжный") -->
        <stop busStop="1771199566" duration="20" until="509.0"/> <!-- Владимира Невского -->
    </route>
    <route id="pt_bus_15:1" edges="174088693 70004437 1190628391 373696537 70004436 37908529 37908464#0 37908464#1 37908464#2 37908464#3 130688553 130688561 130688548 261657003#0 261657003#1 261657003#2 1027066849#1" >
        <stop busStop="1771199567" duration="20" until="68.0"/> <!-- Владимира Невского -->
        <stop busStop="3052536277" duration="20" until="131.0"/> <!-- Владимира Невского (Универсам "Молодёжный") -->
    </route>
    <route id="pt_bus_16В:0" edges="-38373347 65758492#0 65758492#1 1190628393 188335300#0 188335300#1 373696537 70004436 37908529 37908464#0 37908464#1 37908464#2 37908464#3 130688553 38766222 170096909#1 170096909#2 170096909#3 170096909#4 170096909#5 170096909#6 313864612#0 313864612#1 313864612#2 313864612#3 313864612#4 313864612#5 313864612#6 313864612#7 313864612#8 313864612#11 313864612#13 313864612#14 313864612#16 454548725#0" >
        <stop busStop="3665704206" duration="20" until="53.0"/> <!-- Новгородская -->
        <stop busStop="1828274452" duration="20" until="127.0"/> <!-- Новгородская -->
        <stop busStop="1771199567" duration="20" until="185.0"/> <!-- Владимира Невского -->
        <stop busStop="3052536277" duration="20" until="250.0"/> <!-- Владимира Невского (Универсам "Молодёжный") -->
        <stop busStop="1648120191" duration="20" until="300.0"/> <!-- Универсам "Молодёжный" -->
        <stop busStop="1648124816" duration="20" until="367.0"/> <!-- 60 лет ВЛКСМ -->
        <stop busStop="1648127681" duration="20" until="427.0"/> <!-- Институт искусств -->
        <stop busStop="1648130838" duration="20" until="513.0"/> <!-- 60 Армии -->
        <stop busStop="1648137532" duration="20" until="571.0"/> <!-- Школа -->
        <stop busStop="1674349139" duration="20" until="656.0"/> <!-- Кинотеатр "Мир" -->
    </route>
    <route id="pt_bus_16В:1" edges="127328085#0 127328085#2 127328085#3 127328085#4 127328085#5 127328085#6 127328085#7 127328085#9 127328085#10 127328085#11 127328085#12 179483091#0 179483091#2 179483091#3 188130796#0 188130796#1 188130796#2 313864611#0 313864611#2 313864611#3 313864611#4 313864611#5 130688548 130688564 130688554 130688560 172492284#0 172492284#1 37908462#0 37908462#1 37908462#2 37908462#3 164790872 70004437 1190628394#0 1190628394#1 1190628394#2 -1190628393 -65758492#1 -65758492#0 38373347 -38373347" >
        <stop busStop="1648243506" duration="20" until="74.0"/> <!-- Кинотеатр "Мир" -->
        <stop busStop="1648244043" duration="20" until="141.0"/> <!-- Школа -->
        <stop busStop="1648244580" duration="20" until="212.0"/> <!-- 60 Армии -->
        <stop busStop="1648250256" duration="20" until="292.0"/> <!-- Институт искусств -->
        <stop busStop="1648252258" duration="20" until="353.0"/> <!-- 60 лет ВЛКСМ -->
        <stop busStop="1648253666" duration="20" until="420.0"/> <!-- Универсам "Молодёжный" -->
        <stop busStop="3052536276" duration="20" until="479.0"/> <!-- Владимира Невского (Универсам "Молодёжный") -->
        <stop busStop="1771199566" duration="20" until="540.0"/> <!-- Владимира Невского -->
        <stop busStop="-9089520321" duration="20" until="657.0"/> <!-- ул. Новгородская -->
    </route>
    <route id="pt_bus_18:0" edges="587766759#0 587766759#2 587766759#3 1105958338#0 1105958338#2 1105958338#3 1105958338#4 1105958338#6 1105958338#7 1105958338#8 984377833 192222487#0 192222487#2 192222487#3 192222487#4 28951980#0 28951980#1" >
        <stop busStop="3227037452" duration="20" until="97.0"/> <!-- Питомник -->
        <stop busStop="3227037441" duration="20" until="192.0"/> <!-- Больница №7 -->
    </route>
    <route id="pt_bus_18:1" edges="866853351#0 866853351#1 866853351#2 37908503#0 37908503#2 37908503#3 37908503#4 414841236#0 414841236#1 414841236#3 414841236#4 414841236#5 414841236#7 587766767" >
        <stop busStop="3227037442" duration="20" until="60.0"/> <!-- Больница №7 -->
        <stop busStop="2911646475" duration="20" until="140.0"/> <!-- Питомник -->
    </route>
    <route id="pt_bus_27:0" edges="1155202125 192222457 179481566#0 1155202665#0 1155202665#1 192222461#0 192222461#2 192222461#3 192222461#4 192222461#5 154984458 129557734 37908526 287246976#0 287246976#2 287246976#3 378276857#1 287246974#0 287246974#2 287246974#3 287246974#4 287246974#6 454548725#0" >
        <stop busStop="1643998027" duration="20" until="311.0"/> <!-- ул. 45 стр. Дивизии -->
        <stop busStop="1643999455" duration="20" until="413.0"/> <!-- Памятник Славы -->
        <stop busStop="3366023907" duration="20" until="490.0"/> <!-- Памятник Славы -->
        <stop busStop="1648142128" duration="20" until="544.0"/> <!-- Хользунова -->
        <stop busStop="1674349139" duration="20" until="675.0"/> <!-- Кинотеатр "Мир" -->
    </route>
    <route id="pt_bus_27:1" edges="454548726 151974260#0 151974260#1 151974260#3 151974260#4 289115600#0 289115600#1 289115600#3 38809001#0 38809001#1 38809001#2 38809001#3 38809001#4 1155202666#0 135082497#0 135082497#1 1155202127#1 78247504" >
        <stop busStop="1648141156" duration="20" until="49.0"/> <!-- Кинотеатр "Мир" -->
        <stop busStop="2908797330" duration="20" until="144.0"/> <!-- Хользунова -->
        <stop busStop="2908797328" duration="20" until="201.0"/> <!-- Памятник Славы -->
        <stop busStop="1643955249" duration="20" until="318.0"/> <!-- ул. 45 стр. Дивизии -->
    </route>
    <route id="pt_bus_28:0" edges="171989082 172492284#0 172492284#1 37908462#0 37908462#1 37908462#2 37908462#3 164790872 70004437 1190628391 373696537 37908522 104071737#0 104071737#1 104071737#2 104071737#3 104071737#5 104071737#6 289115601#0 289115601#2 347995181 347995182 362223418 188335314 349283316#0 349283316#2 349283316#3 349283350#0 349283350#1 349283350#2 349283350#4 349283350#5 287246975#0 287246975#1 287246975#2 289115600#0 289115600#1 289115600#3 38809001#0 38809001#1 38809001#2 38809001#3 38809001#4 1155202666#0 135082497#0 135082497#1 1155202127#1 -717053751#1 -469065845 -981597901 -188335311#6 -188335311#5 -188335311#4 -188335311#3 -188335311#2 -188335311#1 188335301#0 188335301#2 188335301#3 289115589#0 289115589#2 289115589#3 289115589#4 289115589#5 289115589#6 289115591#0 289115591#2 289115591#3 289115591#4 289115591#5 289115591#6 289115591#7 65758492#0 65758492#1 1190628393 188335300#0 188335300#1 373696537 70004436 37908529 37908464#0 37908464#1 37908464#2 37908464#3 130688553 130688561 130688548 130688564 130688554 38284697" >
        <stop busStop="3052536276" duration="20" until="46.0"/> <!-- Владимира Невского (Универсам "Молодёжный") -->
        <stop busStop="1771199566" duration="20" until="107.0"/> <!-- Владимира Невского -->
        <stop busStop="1828274452" duration="20" until="177.0"/> <!-- Новгородская -->
        <stop busStop="1828281263" duration="20" until="243.0"/> <!-- Подгоренская -->
        <stop busStop="1828284271" duration="20" until="314.0"/> <!-- Птичий рынок -->
        <stop busStop="1828286578" duration="20" until="410.0"/> <!-- Беспаловой -->
        <stop busStop="2908797330" duration="20" until="496.0"/> <!-- Хользунова -->
        <stop busStop="2908797328" duration="20" until="553.0"/> <!-- Памятник Славы -->
        <stop busStop="1643955249" duration="20" until="656.0"/> <!-- ул. 45 стр. Дивизии -->
        <stop busStop="-9089473008" duration="20" until="742.0"/> <!-- ул. 303 стрелковой дивизии -->
        <stop busStop="-9089473004" duration="20" until="823.0"/> <!-- ул. Радиозаводская -->
    </route>
    <route id="pt_bus_28:1" edges="171989082 172492284#0 172492284#1 37908462#0 37908462#1 37908462#2 37908462#3 164790872 70004437 1190628391 373696537 37908522 104071737#0 104071737#1 104071737#2 104071737#3 104071737#5 104071737#6 289115601#0 289115601#2 347995181 347995182 362223418 188335314" >
        <stop busStop="3052536276" duration="20" until="80.0"/> <!-- Владимира Невского (Универсам "Молодёжный") -->
        <stop busStop="1771199566" duration="20" until="141.0"/> <!-- Владимира Невского -->
        <stop busStop="1828274452" duration="20" until="248.0"/> <!-- Новгородская -->
        <stop busStop="1828281263" duration="20" until="315.0"/> <!-- Подгоренская -->
        <stop busStop="1828284271" duration="20" until="388.0"/> <!-- Птичий рынок -->
    </route>
    <route id="pt_bus_29:0" edges="866853351#0 866853351#1 866853351#2 37908503#0 37908503#2 37908503#3 37908503#4 414841236#0 414841236#1 414841236#3 414841236#4 414841236#5 414841236#7 587766767" >
        <stop busStop="3227037442" duration="20" until="51.0"/> <!-- Больница №7 -->
        <stop busStop="2911646475" duration="20" until="132.0"/> <!-- Питомник -->
    </route>
    <route id="pt_bus_37:0" edges="-38373347 65758492#0 65758492#1 1190628393 188335300#0 188335300#1 373696537 70004436 37908529 37908464#0 37908464#1 37908464#2 37908464#3 130688553 130688561 130688548 261657003#0 261657003#1 261657003#2 261657003#2 1027066849#1" >
        <stop busStop="-9089520321" duration="20" until="47.0"/> <!-- ул. Новгородская -->
        <stop busStop="1828274452" duration="20" until="127.0"/> <!-- Новгородская -->
        <stop busStop="1771199567" duration="20" until="183.0"/> <!-- Владимира Невского -->
        <stop busStop="3052536277" duration="20" until="246.0"/> <!-- Владимира Невского (Универсам "Молодёжный") -->
        <stop busStop="9469052117" duration="20" until="301.0"/> <!-- Владимира Невского (Универсам "Молодёжный") -->
        <stop busStop="1849564731" duration="20" until="347.0" jump="4.611391210669918"/> <!-- Универсам "Молодёжный" -->
    </route>
    <route id="pt_bus_37:1" edges="179481566#0 1155202665#0 1155202665#1 192222461#0 192222461#2 192222461#3 192222461#4 192222461#5 154984458 129557734 37908526 287246976#0 287246976#2 287246976#3 378276857#1 287246974#0 287246974#2 287246974#3 287246974#4 287246974#6 454548725#0" >
        <stop busStop="1643998027" duration="20" until="59.0"/> <!-- ул. 45 стр. Дивизии -->
        <stop busStop="1643999455" duration="20" until="157.0"/> <!-- Памятник Славы -->
        <stop busStop="3366023907" duration="20" until="240.0"/> <!-- Памятник Славы -->
        <stop busStop="1648142128" duration="20" until="295.0"/> <!-- Хользунова -->
        <stop busStop="1674349139" duration="20" until="396.0"/> <!-- Кинотеатр "Мир" -->
    </route>
    <route id="pt_bus_37А:0" edges="454548726 151974260#0 151974260#1 151974260#3 151974260#4 289115600#0 289115600#1 289115600#3 38809001#0 38809001#1 38809001#2 38809001#3 38809001#4 1155202666#0 135082497#0 135082497#1 1155202127#1 78247504" >
        <stop busStop="1648141156" duration="20" until="54.0"/> <!-- Кинотеатр "Мир" -->
        <stop busStop="2908797330" duration="20" until="149.0"/> <!-- Хользунова -->
        <stop busStop="2908797328" duration="20" until="205.0"/> <!-- Памятник Славы -->
        <stop busStop="1643955249" duration="20" until="334.0"/> <!-- ул. 45 стр. Дивизии -->
    </route>
    <route id="pt_bus_37А:1" edges="1155202125 192222457 179481566#0 1155202665#0 1155202665#1 192222461#0 192222461#2 192222461#3 192222461#4 192222461#5 154984458 129557734 37908526 287246976#0 287246976#2 287246976#3 378276857#1 287246974#0 287246974#2 287246974#3 287246974#4 287246974#6 454548725#0" >
        <stop busStop="1643998027" duration="20" until="204.0"/> <!-- ул. 45 стр. Дивизии -->
        <stop busStop="1643999455" duration="20" until="339.0"/> <!-- Памятник Славы -->
        <stop busStop="3366023907" duration="20" until="407.0"/> <!-- Памятник Славы -->
        <stop busStop="1648142128" duration="20" until="461.0"/> <!-- Хользунова -->
        <stop busStop="1674349139" duration="20" until="584.0"/> <!-- Кинотеатр "Мир" -->
    </route>
    <route id="pt_bus_3:0" edges="373696528 981843206#0 981843206#1 1370340546 52936182 38809000#0 38809000#1 38809000#2" >
        <stop busStop="2917832671" duration="20" until="103.0"/> <!-- Памятник Славы -->
    </route>
    <route id="pt_bus_3В:0" edges="-38373347 65758492#0 65758492#1 1190628393 188335300#0 188335300#1 373696537 70004436 37908529 37908464#0 37908464#1 37908464#2 37908464#3 130688553 38766222 170096909#1 170096909#2 170096909#3 170096909#4 170096909#5 170096909#6 313864612#0 313864612#1 313864612#2 313864612#3 313864612#4 313864612#5 313864612#6 313864612#7 313864612#8 313864612#11 313864612#13 313864612#14 313864612#16 151974260#0 151974260#1 151974260#3 151974260#4 289115600#0 289115600#1 289115600#3 38809001#0 38809001#1 38809001#2 38809001#3 38809001#4 1155202666#0 -192222450#6 -192222450#4 -192222450#2 -192222450#1 -192222450#0 -414841238#4 -414841238#3 -414841238#2 -414841238#1 -414841238#0 -981597899#1 -981597899#0 -981597898#3 -981597898#2 -981597898#1 -981597898#0 -192222453 984377833 192222487#0 192222487#2 192222487#3 192222487#4 28951980#0 28951980#1" >
        <stop busStop="3665704206" duration="20" until="54.0"/> <!-- Новгородская -->
        <stop busStop="1771199567" duration="20" until="146.0"/> <!-- Владимира Невского -->
        <stop busStop="3052536277" duration="20" until="208.0"/> <!-- Владимира Невского (Универсам "Молодёжный") -->
        <stop busStop="1648120191" duration="20" until="258.0"/> <!-- Универсам "Молодёжный" -->
        <stop busStop="1648124816" duration="20" until="326.0"/> <!-- 60 лет ВЛКСМ -->
        <stop busStop="1648127681" duration="20" until="383.0"/> <!-- Институт искусств -->
        <stop busStop="1648130838" duration="20" until="450.0"/> <!-- 60 Армии -->
        <stop busStop="1648137532" duration="20" until="508.0"/> <!-- Школа -->
        <stop busStop="1648141156" duration="20" until="597.0"/> <!-- Кинотеатр "Мир" -->
        <stop busStop="2908797330" duration="20" until="695.0"/> <!-- Хользунова -->
        <stop busStop="2908797328" duration="20" until="751.0"/> <!-- Памятник Славы -->
        <stop busStop="-4485478415" duration="20" until="838.0"/> <!-- Московский пр-т -->
        <stop busStop="-2911646473" duration="20" until="901.0"/> <!-- Карпинского -->
        <stop busStop="-2911646478" duration="20" until="979.0"/> <!-- Шишкова -->
        <stop busStop="3227037441" duration="20" until="1098.0"/> <!-- Больница №7 -->
    </route>
    <route id="pt_bus_3В:1" edges="866853351#1 866853351#2 -192222470#1 -209300566 -30500033#2 -30500033#1 -30500033#0 -414841238#2 -414841238#1 -414841238#0 -981597899#1 -981597899#0 -981597898#3 -981597898#2 -981597898#1 -981597898#0 -192222453 414841234 981597898#0 981597898#1 981597898#2 981597898#3 981597899#0 981597899#1 414841238#0 414841238#1 414841238#2 414841238#3 414841238#4 414841238#5 192222450#1 192222450#2 192222450#4 192222450#5 -192222450#6 -192222450#4 -192222450#2 -192222450#1 -192222450#0 -414841238#4 -414841238#3 414841238#3 414841238#4 414841238#5 192222450#1 192222450#2 192222450#4 192222450#5 -192222450#6 -192222450#4 -192222450#2 -192222450#1 -192222450#0 -414841238#4 -414841238#3 414841238#3 414841238#4 414841238#5 192222450#1 192222450#2 192222450#4 192222450#5 192222461#0 192222461#2 192222461#3 192222461#4 192222461#5 154984458 129557734 37908526 287246976#0 287246976#2 287246976#3 378276857#1 287246974#0 287246974#2 287246974#3 287246974#4 287246974#6 127328085#0 127328085#2 127328085#3 127328085#4 127328085#5 127328085#6 127328085#7 127328085#9 127328085#10 127328085#11 127328085#12 179483091#0 179483091#2 179483091#3 188130796#0 188130796#1 188130796#2 313864611#0 313864611#2 313864611#3 313864611#4 313864611#5 130688548 130688564 130688554 130688560 172492284#0 172492284#1 37908462#0 37908462#1 37908462#2 37908462#3 164790872 70004437 1190628394#0 1190628394#1 1190628394#2 -1190628393 -65758492#1 -65758492#0 38373347 -38373347 65758492#0 65758492#1 1190628393" >
        <stop busStop="3227037442" duration="20" until="51.0"/> <!-- Больница №7 -->
        <stop busStop="-4485478402" duration="20" until="224.0"/> <!-- Шишкова -->
        <stop busStop="-4488933246" duration="20" until="390.0"/> <!-- Карпинского -->
        <stop busStop="-4485478415" duration="20" until="481.0"/> <!-- Московский пр-т -->
        <stop busStop="1643999455" duration="20" until="661.0"/> <!-- Памятник Славы -->
        <stop busStop="3366023907" duration="20" until="738.0"/> <!-- Памятник Славы -->
        <stop busStop="1648142128" duration="20" until="792.0"/> <!-- Хользунова -->
        <stop busStop="1648243506" duration="20" until="896.0"/> <!-- Кинотеатр "Мир" -->
        <stop busStop="1648244043" duration="20" until="958.0"/> <!-- Школа -->
        <stop busStop="1648244580" duration="20" until="1020.0"/> <!-- 60 Армии -->
        <stop busStop="1648250256" duration="20" until="1096.0"/> <!-- Институт искусств -->
        <stop busStop="1648252258" duration="20" until="1157.0"/> <!-- 60 лет ВЛКСМ -->
        <stop busStop="1648253666" duration="20" until="1222.0"/> <!-- Универсам "Молодёжный" -->
        <stop busStop="3052536276" duration="20" until="1279.0"/> <!-- Владимира Невского (Универсам "Молодёжный") -->
        <stop busStop="1771199566" duration="20" until="1340.0"/> <!-- Владимира Невского -->
        <stop busStop="-9089520321" duration="20" until="1458.0"/> <!-- ул. Новгородская -->
    </route>
    <route id="pt_bus_41:0" edges="171989082 172492284#0 172492284#1 130688555 130688553 38766222 170096909#1 170096909#2 170096909#3 170096909#4 170096909#5 170096909#6 313864612#0 313864612#1 313864612#2 313864612#3 313864612#4 313864612#5 313864612#6 313864612#7 313864612#8 313864612#11 313864612#13 313864612#14 313864612#16 151974260#0 151974260#1 151974260#3 151974260#4 289115600#0 289115600#1 289115600#3 38809001#0 38809001#1 38809001#2 38809001#3 38809001#4 1155202666#0 135082497#0 135082497#1 1155202127#1 78247504" >
        <stop busStop="1648141156" duration="20" until="198.0"/> <!-- Кинотеатр "Мир" -->
        <stop busStop="2908797330" duration="20" until="280.0"/> <!-- Хользунова -->
        <stop busStop="2908797328" duration="20" until="336.0"/> <!-- Памятник Славы -->
        <stop busStop="1643955249" duration="20" until="446.0"/> <!-- ул. 45 стр. Дивизии -->
    </route>
    <route id="pt_bus_41:1" edges="1155202125 192222457 179481566#0 1155202665#0 1155202665#1 192222461#0 192222461#2 192222461#3 192222461#4 192222461#5 154984458 129557734 37908526 287246976#0 287246976#2 287246976#3 378276857#1 287246974#0 287246974#2 287246974#3 287246974#4 287246974#6 454548725#0" >
        <stop busStop="1643998027" duration="20" until="312.0"/> <!-- ул. 45 стр. Дивизии -->
        <stop busStop="1643999455" duration="20" until="455.0"/> <!-- Памятник Славы -->
        <stop busStop="3366023907" duration="20" until="519.0"/> <!-- Памятник Славы -->
        <stop busStop="1648142128" duration="20" until="574.0"/> <!-- Хользунова -->